<?xml version="1.0" encoding="UTF-8"?>

<!-- generated on 2025-08-18 22:57:32 by Eclipse SUMO duarouter Version 1.23.1
<duarouterConfiguration xmlns:xsi="http://www.w3.org/2001/XMLSchema-instance" xsi:noNamespaceSchemaLocation="http://sumo.dlr.de/xsd/duarouterConfiguration.xsd">

    <input>
        <net-file value="config/network_with_tl.net.xml"/>
        <route-files value="trips.trips.xml"/>
    </input>

    <output>
        <output-file value="config/amb.rou.xml"/>
        <vtype-output value="ambulance"/>
        <alternatives-output value="NUL"/>
    </output>

    <time>
        <begin value="10.0"/>
        <end value="600.0"/>
    </time>

    <report>
        <no-warnings value="true"/>
        <ignore-errors value="true"/>
        <no-step-log value="true"/>
    </report>

</duarouterConfiguration>
-->

<routes xmlns:xsi="http://www.w3.org/2001/XMLSchema-instance" xsi:noNamespaceSchemaLocation="http://sumo.dlr.de/xsd/routes_file.xsd"/>
