<?xml version="1.0" encoding="UTF-8"?>

<!-- generated on 2025-09-11 14:57:47.738462 by randomTrips.py v1_23_1+0000-676720d13f6
<configuration>
    <net-file value="config/network_with_tl.net.xml"/>
    <route-file value="config/routes.rou.xml"/>
    <end value="600.0"/>
    <period value="1.0"/>
</configuration>
-->

<routes xmlns:xsi="http://www.w3.org/2001/XMLSchema-instance" xsi:noNamespaceSchemaLocation="http://sumo.dlr.de/xsd/routes_file.xsd">
    <trip id="0" depart="0.00" from="1381154902#3" to="-1074432518#3"/>
    <trip id="1" depart="1.00" from="-246687474" to="-177523165#0"/>
    <trip id="2" depart="2.00" from="185305416#1" to="177523134#2"/>
    <trip id="3" depart="3.00" from="493918493#1" to="-1074436801"/>
    <trip id="4" depart="4.00" from="-720428928#4" to="-1074432525#4"/>
    <trip id="5" depart="5.00" from="-177523157#12" to="1074432532#2"/>
    <trip id="6" depart="6.00" from="-1074432519#0" to="-177523131#1"/>
    <trip id="7" depart="7.00" from="1381159548#1" to="1074436748#1"/>
    <trip id="8" depart="8.00" from="-177523157#2" to="1381134494#1"/>
    <trip id="9" depart="9.00" from="361570545#6" to="-1074432466#0"/>
    <trip id="10" depart="10.00" from="361570537" to="177523152#7"/>
    <trip id="11" depart="11.00" from="-361657063#2" to="-1381154878"/>
    <trip id="12" depart="12.00" from="720585531" to="-361657061#12"/>
    <trip id="13" depart="13.00" from="-1074436806" to="-1381134458#0"/>
    <trip id="14" depart="14.00" from="363297693#3" to="1381151880#1"/>
    <trip id="15" depart="15.00" from="361570544#2" to="185305394#2"/>
    <trip id="16" depart="16.00" from="1074436742#2" to="720628536#5"/>
    <trip id="17" depart="17.00" from="-402881937#5" to="1074436761#4"/>
    <trip id="18" depart="18.00" from="361657061#11" to="1381151921"/>
    <trip id="19" depart="19.00" from="363298362#1" to="1381134473#2"/>
    <trip id="20" depart="20.00" from="177523159#1" to="-1074432557#0"/>
    <trip id="21" depart="21.00" from="-177523173#11" to="-246687526#2"/>
    <trip id="22" depart="22.00" from="-1074436758#3" to="-185261806#4"/>
    <trip id="23" depart="23.00" from="-1381134460#1" to="-246687491#0"/>
    <trip id="24" depart="24.00" from="1381154896" to="-363297720#2"/>
    <trip id="25" depart="25.00" from="-402881931#0" to="-177523149#17"/>
    <trip id="26" depart="26.00" from="-246687447" to="720447015#33"/>
    <trip id="27" depart="27.00" from="1381159545#1" to="1381151895#2"/>
    <trip id="28" depart="28.00" from="-1381154905" to="185305388#5"/>
    <trip id="29" depart="29.00" from="-1381154893" to="-402881938#10"/>
    <trip id="30" depart="30.00" from="767777759#1" to="1381154903#0"/>
    <trip id="31" depart="31.00" from="1074436797#2" to="177523142#6"/>
    <trip id="32" depart="32.00" from="361657085#2" to="246687521#1"/>
    <trip id="33" depart="33.00" from="-177523173#5" to="-1074432530#2"/>
    <trip id="34" depart="34.00" from="-361570545#0" to="-246687452#10"/>
    <trip id="35" depart="35.00" from="-177523149#20" to="720448518#10"/>
    <trip id="36" depart="36.00" from="402881940#2" to="-361570544#6"/>
    <trip id="37" depart="37.00" from="1381159557#1" to="-460733782#1"/>
    <trip id="38" depart="38.00" from="720428928#12" to="-767777760#2"/>
    <trip id="39" depart="39.00" from="-246687442#6" to="-185305414#3"/>
    <trip id="40" depart="40.00" from="1074436809#0" to="-246687442#0"/>
    <trip id="41" depart="41.00" from="1381134490#1" to="656151033#3"/>
    <trip id="42" depart="42.00" from="-493918497" to="-177523157#18"/>
    <trip id="43" depart="43.00" from="767777775#1" to="1074432536#1"/>
    <trip id="44" depart="44.00" from="-1074436803#0" to="-1074432558#4"/>
    <trip id="45" depart="45.00" from="-1381134479#0" to="1381154876#1"/>
    <trip id="46" depart="46.00" from="279683626#3" to="-720428928#8"/>
    <trip id="47" depart="47.00" from="-1074436735#7" to="-402881938#6"/>
    <trip id="48" depart="48.00" from="767777773#0" to="1074432583#3"/>
    <trip id="49" depart="49.00" from="720628536#0" to="363298362#2"/>
    <trip id="50" depart="50.00" from="-1074432475#2" to="185261854#1"/>
    <trip id="51" depart="51.00" from="177523141#5" to="1074436740#1"/>
    <trip id="52" depart="52.00" from="-246687446#5" to="1381154903#4"/>
    <trip id="53" depart="53.00" from="-1381134482#0" to="-720447015#30"/>
    <trip id="54" depart="54.00" from="-720630454#3" to="720566247#0"/>
    <trip id="55" depart="55.00" from="402881940#0" to="-246687442#2"/>
    <trip id="56" depart="56.00" from="1074432525#0" to="-1381159551"/>
    <trip id="57" depart="57.00" from="720424789#0" to="402881937#5"/>
    <trip id="58" depart="58.00" from="-279683626#0" to="1381154902#0"/>
    <trip id="59" depart="59.00" from="1381151898#1" to="-1381154873"/>
    <trip id="60" depart="60.00" from="246687472#7" to="1074436743#2"/>
    <trip id="61" depart="61.00" from="246687527#1" to="1074432585#1"/>
    <trip id="62" depart="62.00" from="-1074432457#10" to="-361657051#0"/>
    <trip id="63" depart="63.00" from="-1074432500" to="720445431#5"/>
    <trip id="64" depart="64.00" from="44965319#0" to="361657062#1"/>
    <trip id="65" depart="65.00" from="-361570529#6" to="-1074436735#0"/>
    <trip id="66" depart="66.00" from="44965300#5" to="720543253#10"/>
    <trip id="67" depart="67.00" from="-1074436790" to="1074432488"/>
    <trip id="68" depart="68.00" from="-1074436744#0" to="246687469#9"/>
    <trip id="69" depart="69.00" from="246687486" to="-1381151878#1"/>
    <trip id="70" depart="70.00" from="1074432461#1" to="1074436758#1"/>
    <trip id="71" depart="71.00" from="-246687445#0" to="402881938#2"/>
    <trip id="72" depart="72.00" from="-720428930#0" to="-177523149#9"/>
    <trip id="73" depart="73.00" from="1074436744#7" to="185305394#3"/>
    <trip id="74" depart="74.00" from="-177523131#8" to="-361570536#1"/>
    <trip id="75" depart="75.00" from="767777772#1" to="1381159550#0"/>
    <trip id="76" depart="76.00" from="-720543253#10" to="1074432556#1"/>
    <trip id="77" depart="77.00" from="-1381134501" to="-177523167#2"/>
    <trip id="78" depart="78.00" from="-361657061#5" to="1381134493#1"/>
    <trip id="79" depart="79.00" from="-185261727#2" to="-177523157#3"/>
    <trip id="80" depart="80.00" from="-1074436745" to="1381154886"/>
    <trip id="81" depart="81.00" from="-177523173#5" to="656151041#8"/>
    <trip id="82" depart="82.00" from="363297722#6" to="-1074436747#5"/>
    <trip id="83" depart="83.00" from="-185261910#0" to="1388713139#1"/>
    <trip id="84" depart="84.00" from="-177523152#16" to="-1381151891#0"/>
    <trip id="85" depart="85.00" from="720447015#27" to="1381134458#1"/>
    <trip id="86" depart="86.00" from="1074432457#6" to="279683595#12"/>
    <trip id="87" depart="87.00" from="361570544#5" to="-1381159575"/>
    <trip id="88" depart="88.00" from="-1341432742#1" to="-720447015#16"/>
    <trip id="89" depart="89.00" from="-720428930#2" to="-767777775#6"/>
    <trip id="90" depart="90.00" from="185305388#5" to="176481703#3"/>
    <trip id="91" depart="91.00" from="720632135#4" to="-1381134461"/>
    <trip id="92" depart="92.00" from="-656151029#3" to="-361657062#0"/>
    <trip id="93" depart="93.00" from="363298362#1" to="-185305416#5"/>
    <trip id="94" depart="94.00" from="-1381159573#0" to="-720628371#1"/>
    <trip id="95" depart="95.00" from="-720428928#4" to="-246687493#1"/>
    <trip id="96" depart="96.00" from="-185305418#0" to="720436252#0"/>
    <trip id="97" depart="97.00" from="-720566239#1" to="363298364"/>
    <trip id="98" depart="98.00" from="1074436763" to="-1074432568#1"/>
    <trip id="99" depart="99.00" from="767777776#2" to="361657074#2"/>
    <trip id="100" depart="100.00" from="720628376#4" to="720444142#4"/>
    <trip id="101" depart="101.00" from="363297695#0" to="-1381154902#1"/>
    <trip id="102" depart="102.00" from="1074432485#0" to="-177523152#16"/>
    <trip id="103" depart="103.00" from="-656151028#2" to="-1074436735#10"/>
    <trip id="104" depart="104.00" from="-402881938#1" to="720632135#8"/>
    <trip id="105" depart="105.00" from="-246687445#0" to="279683595#10"/>
    <trip id="106" depart="106.00" from="-767777751" to="-720428930#2"/>
    <trip id="107" depart="107.00" from="720585531" to="767777772#2"/>
    <trip id="108" depart="108.00" from="1074436796#1" to="185261806#0"/>
    <trip id="109" depart="109.00" from="-1381154872" to="-279683615#0"/>
    <trip id="110" depart="110.00" from="720628376#2" to="1381134477#2"/>
    <trip id="111" depart="111.00" from="1074436747#4" to="246687435#4"/>
    <trip id="112" depart="112.00" from="-1074432580#3" to="1381134484"/>
    <trip id="113" depart="113.00" from="1074432528#1" to="363297715#0"/>
    <trip id="114" depart="114.00" from="-1381154878" to="720594284#2"/>
    <trip id="115" depart="115.00" from="-1074436759#1" to="-1381159563"/>
    <trip id="116" depart="116.00" from="1381134512#2" to="177523131#4"/>
    <trip id="117" depart="117.00" from="-185261908#0" to="-1381134504#2"/>
    <trip id="118" depart="118.00" from="460733782#7" to="-185305414#1"/>
    <trip id="119" depart="119.00" from="1381134511" to="1381151923#2"/>
    <trip id="120" depart="120.00" from="-720423732#7" to="1381134483#2"/>
    <trip id="121" depart="121.00" from="1074432571#0" to="720447015#26"/>
    <trip id="122" depart="122.00" from="-177523143#1" to="185261747#3"/>
    <trip id="123" depart="123.00" from="-185261956#0" to="-460733782#1"/>
    <trip id="124" depart="124.00" from="173780863#9" to="-361568686#3"/>
    <trip id="125" depart="125.00" from="-361570545#3" to="246687442#3"/>
    <trip id="126" depart="126.00" from="-1074436746#5" to="-767777759#2"/>
    <trip id="127" depart="127.00" from="767777775#5" to="767777773#0"/>
    <trip id="128" depart="128.00" from="-1074436747#2" to="-177523152#13"/>
    <trip id="129" depart="129.00" from="-246687445#0" to="720447015#20"/>
    <trip id="130" depart="130.00" from="457093788#1" to="457092572"/>
    <trip id="131" depart="131.00" from="-363298364" to="-1381154884#2"/>
    <trip id="132" depart="132.00" from="361657063#4" to="177523158#0"/>
    <trip id="133" depart="133.00" from="1381151908#0" to="767777755#1"/>
    <trip id="134" depart="134.00" from="1381159554#3" to="-1074432466#5"/>
    <trip id="135" depart="135.00" from="361657051#0" to="-361568686#0"/>
    <trip id="136" depart="136.00" from="1381159576#1" to="720447016#10"/>
    <trip id="137" depart="137.00" from="-1381151888" to="-1381134494#0"/>
    <trip id="138" depart="138.00" from="-1381134475" to="1074436764#1"/>
    <trip id="139" depart="139.00" from="-246687469#8" to="1381151884"/>
    <trip id="140" depart="140.00" from="185261747#7" to="-177523143#1"/>
    <trip id="141" depart="141.00" from="1381154891" to="-246687442#5"/>
    <trip id="142" depart="142.00" from="1074432494" to="656151041#8"/>
    <trip id="143" depart="143.00" from="361657091#3" to="-1210937450"/>
    <trip id="144" depart="144.00" from="-720428930#2" to="-246687485#1"/>
    <trip id="145" depart="145.00" from="-1074432460#1" to="246687508#1"/>
    <trip id="146" depart="146.00" from="1381154898#5" to="-246687439#1"/>
    <trip id="147" depart="147.00" from="185305419#8" to="1074436761#2"/>
    <trip id="148" depart="148.00" from="-720436246#7" to="-1074432472#0"/>
    <trip id="149" depart="149.00" from="-1074436749#2" to="460733770#2"/>
    <trip id="150" depart="150.00" from="656151040#0" to="1074436749#2"/>
    <trip id="151" depart="151.00" from="361657069" to="1381134482#1"/>
    <trip id="152" depart="152.00" from="-1381151923#2" to="-1381151877#2"/>
    <trip id="153" depart="153.00" from="-361570531#3" to="656151035#1"/>
    <trip id="154" depart="154.00" from="361568692#1" to="363298362#2"/>
    <trip id="155" depart="155.00" from="656151034#0" to="-177523149#2"/>
    <trip id="156" depart="156.00" from="-185305416#5" to="-1381134472#0"/>
    <trip id="157" depart="157.00" from="27256090#13" to="460733771#2"/>
    <trip id="158" depart="158.00" from="-656151034#1" to="1381151926#1"/>
    <trip id="159" depart="159.00" from="-1381154871" to="720445431#9"/>
    <trip id="160" depart="160.00" from="402881931#4" to="720628627#14"/>
    <trip id="161" depart="161.00" from="361570546#13" to="457094385"/>
    <trip id="162" depart="162.00" from="-1074432515" to="185305416#2"/>
    <trip id="163" depart="163.00" from="-361657056#0" to="720447015#11"/>
    <trip id="164" depart="164.00" from="361570531#8" to="402881931#8"/>
    <trip id="165" depart="165.00" from="361570546#13" to="-246687450"/>
    <trip id="166" depart="166.00" from="279683595#6" to="-1381134481"/>
    <trip id="167" depart="167.00" from="402881938#1" to="363297722#6"/>
    <trip id="168" depart="168.00" from="-177523159#0" to="361657051#1"/>
    <trip id="169" depart="169.00" from="-767777761#1" to="-361568698#6"/>
    <trip id="170" depart="170.00" from="361568689#4" to="-177523173#3"/>
    <trip id="171" depart="171.00" from="-1074432510" to="-1381159587"/>
    <trip id="172" depart="172.00" from="-361657053#5" to="402881931#9"/>
    <trip id="173" depart="173.00" from="720628375#6" to="-246687495#1"/>
    <trip id="174" depart="174.00" from="1381154904#1" to="-493918502"/>
    <trip id="175" depart="175.00" from="720630456" to="1074436739#0"/>
    <trip id="176" depart="176.00" from="720447016#10" to="-1381134493#3"/>
    <trip id="177" depart="177.00" from="720628376#9" to="-1381159551"/>
    <trip id="178" depart="178.00" from="720609525" to="-246687446#0"/>
    <trip id="179" depart="179.00" from="-1381134477#2" to="-720447015#3"/>
    <trip id="180" depart="180.00" from="185305388#3" to="-361570544#0"/>
    <trip id="181" depart="181.00" from="1381151893" to="1074432541#2"/>
    <trip id="182" depart="182.00" from="-44965300#6" to="1381134471"/>
    <trip id="183" depart="183.00" from="-185305426#4" to="177523173#1"/>
    <trip id="184" depart="184.00" from="-1074432457#8" to="720444142#1"/>
    <trip id="185" depart="185.00" from="1074436744#4" to="185261806#4"/>
    <trip id="186" depart="186.00" from="185305426#1" to="173780863#5"/>
    <trip id="187" depart="187.00" from="-363297719#5" to="-1074436747#2"/>
    <trip id="188" depart="188.00" from="1381159581" to="-361657055#2"/>
    <trip id="189" depart="189.00" from="-361570544#0" to="363297695#2"/>
    <trip id="190" depart="190.00" from="185261806#4" to="-361568686#4"/>
    <trip id="191" depart="191.00" from="-361570531#8" to="-656151037#3"/>
    <trip id="192" depart="192.00" from="-656151029#2" to="-279683601#1"/>
    <trip id="193" depart="193.00" from="-1381134516#0" to="-720428928#11"/>
    <trip id="194" depart="194.00" from="720447016#2" to="177523135#0"/>
    <trip id="195" depart="195.00" from="656151038#3" to="1381151911#1"/>
    <trip id="196" depart="196.00" from="-361568687#0" to="1074436754#1"/>
    <trip id="197" depart="197.00" from="-1074432457#1" to="-246687520#1"/>
    <trip id="198" depart="198.00" from="-720447015#1" to="1381134478#3"/>
    <trip id="199" depart="199.00" from="1381159555#1" to="-767777773#2"/>
    <trip id="200" depart="200.00" from="-720543253#7" to="-177523152#16"/>
    <trip id="201" depart="201.00" from="1074432457#8" to="656151038#0"/>
    <trip id="202" depart="202.00" from="361568692#0" to="-1381154905"/>
    <trip id="203" depart="203.00" from="-1074436771" to="1074432551#0"/>
    <trip id="204" depart="204.00" from="1381154889#0" to="-361657060#1"/>
    <trip id="205" depart="205.00" from="361657051#5" to="246687442#0"/>
    <trip id="206" depart="206.00" from="176481702#4" to="-177523167#2"/>
    <trip id="207" depart="207.00" from="-173780863#9" to="-1074432518#0"/>
    <trip id="208" depart="208.00" from="-185305398#2" to="1074432462#2"/>
    <trip id="209" depart="209.00" from="363297696" to="-1074436751"/>
    <trip id="210" depart="210.00" from="-656151044#0" to="1381154883"/>
    <trip id="211" depart="211.00" from="-1381159590" to="177523152#18"/>
    <trip id="212" depart="212.00" from="1074432512#2" to="-185305398#2"/>
    <trip id="213" depart="213.00" from="1381159558#1" to="-1074432464#2"/>
    <trip id="214" depart="214.00" from="246687441#1" to="246687507#1"/>
    <trip id="215" depart="215.00" from="-1381134473#2" to="-720436246#1"/>
    <trip id="216" depart="216.00" from="-1381159544#0" to="720585532#3"/>
    <trip id="217" depart="217.00" from="1074432558#1" to="-1074432567"/>
    <trip id="218" depart="218.00" from="-185305416#4" to="363297695#3"/>
    <trip id="219" depart="219.00" from="-767777755#0" to="361570531#8"/>
    <trip id="220" depart="220.00" from="1381159594#2" to="767777755#4"/>
    <trip id="221" depart="221.00" from="1381134514#0" to="720543253#4"/>
    <trip id="222" depart="222.00" from="493918492#2" to="1381151905"/>
    <trip id="223" depart="223.00" from="185261806#2" to="1074432532#0"/>
    <trip id="224" depart="224.00" from="361657061#3" to="1074436754#1"/>
    <trip id="225" depart="225.00" from="656151032#0" to="185305427#2"/>
    <trip id="226" depart="226.00" from="1074432460#1" to="-246687435#2"/>
    <trip id="227" depart="227.00" from="-185305414#2" to="1381154900#0"/>
    <trip id="228" depart="228.00" from="246687486" to="1074432562#2"/>
    <trip id="229" depart="229.00" from="1381154877#0" to="-246687475"/>
    <trip id="230" depart="230.00" from="-1074436754#2" to="-246687517#0"/>
    <trip id="231" depart="231.00" from="-246687469#6" to="-361570550#0"/>
    <trip id="232" depart="232.00" from="1074436746#2" to="-1381151904"/>
    <trip id="233" depart="233.00" from="-185261727#7" to="177523149#9"/>
    <trip id="234" depart="234.00" from="177523165#3" to="-1074436742#0"/>
    <trip id="235" depart="235.00" from="-656151036#1" to="1074436746#3"/>
    <trip id="236" depart="236.00" from="-656151047#1" to="-177523148#3"/>
    <trip id="237" depart="237.00" from="-720428928#1" to="656151041#6"/>
    <trip id="238" depart="238.00" from="1381134489#1" to="177523152#15"/>
    <trip id="239" depart="239.00" from="363297719#3" to="246687487#0"/>
    <trip id="240" depart="240.00" from="-402881938#2" to="-1074432464#3"/>
    <trip id="241" depart="241.00" from="-361657088#4" to="246687445#3"/>
    <trip id="242" depart="242.00" from="363297714#6" to="720566246"/>
    <trip id="243" depart="243.00" from="-720423732#6" to="246687435#1"/>
    <trip id="244" depart="244.00" from="1074436754#3" to="1381151879#1"/>
    <trip id="245" depart="245.00" from="-177523157#20" to="-177523157#19"/>
    <trip id="246" depart="246.00" from="-720447015#32" to="-1074432525#0"/>
    <trip id="247" depart="247.00" from="-361657061#1" to="177523139#2"/>
    <trip id="248" depart="248.00" from="-656151031#3" to="-1381154900#0"/>
    <trip id="249" depart="249.00" from="-767777775#3" to="-1381151877#3"/>
    <trip id="250" depart="250.00" from="1381151934#0" to="-1074432523#0"/>
    <trip id="251" depart="251.00" from="-460733776#1" to="116378378#2"/>
    <trip id="252" depart="252.00" from="-1074432519#2" to="1381154906"/>
    <trip id="253" depart="253.00" from="-1381151891#2" to="-767777766"/>
    <trip id="254" depart="254.00" from="-1074432561#1" to="-402881938#1"/>
    <trip id="255" depart="255.00" from="-177523149#5" to="-361657053#0"/>
    <trip id="256" depart="256.00" from="246687472#0" to="-402881938#1"/>
    <trip id="257" depart="257.00" from="246687442#2" to="361657063#0"/>
    <trip id="258" depart="258.00" from="-185305419#4" to="-1074436785"/>
    <trip id="259" depart="259.00" from="-1074432499#0" to="1074436743#2"/>
    <trip id="260" depart="260.00" from="767777776#4" to="-361657085#3"/>
    <trip id="261" depart="261.00" from="1381159548#2" to="27256090#4"/>
    <trip id="262" depart="262.00" from="1381159552#2" to="246687446#3"/>
    <trip id="263" depart="263.00" from="720543253#18" to="-177523131#3"/>
    <trip id="264" depart="264.00" from="-1074432502#0" to="-1381154872"/>
    <trip id="265" depart="265.00" from="-1381134513" to="173780863#0"/>
    <trip id="266" depart="266.00" from="1219935629" to="-177523157#11"/>
    <trip id="267" depart="267.00" from="177523155#1" to="246687493#1"/>
    <trip id="268" depart="268.00" from="-1381154902#1" to="1381151891#2"/>
    <trip id="269" depart="269.00" from="246687435#2" to="-1381134493#0"/>
    <trip id="270" depart="270.00" from="361657052#1" to="720628374#4"/>
    <trip id="271" depart="271.00" from="-1381134477#1" to="-1074432519#0"/>
    <trip id="272" depart="272.00" from="-361570536#1" to="177523135#0"/>
    <trip id="273" depart="273.00" from="720585532#3" to="-460733782#5"/>
    <trip id="274" depart="274.00" from="185261727#6" to="-1074436758#1"/>
    <trip id="275" depart="275.00" from="177523149#12" to="1381154876#0"/>
    <trip id="276" depart="276.00" from="-1381134461" to="246687515#3"/>
    <trip id="277" depart="277.00" from="363297712#1" to="1381151875"/>
    <trip id="278" depart="278.00" from="-1381134501" to="720632135#2"/>
    <trip id="279" depart="279.00" from="27256090#7" to="-361657083#0"/>
    <trip id="280" depart="280.00" from="-720436247#1" to="-402881931#10"/>
    <trip id="281" depart="281.00" from="1074432533#2" to="-361657068#1"/>
    <trip id="282" depart="282.00" from="363297695#6" to="361657055#2"/>
    <trip id="283" depart="283.00" from="-1381134470#2" to="720594284#2"/>
    <trip id="284" depart="284.00" from="1381154896" to="361657061#12"/>
    <trip id="285" depart="285.00" from="177523167#3" to="-720447015#33"/>
    <trip id="286" depart="286.00" from="185305402#6" to="720628375#0"/>
    <trip id="287" depart="287.00" from="-246687468#1" to="361570545#3"/>
    <trip id="288" depart="288.00" from="1074436744#3" to="1074432480"/>
    <trip id="289" depart="289.00" from="-720447015#31" to="185305398#0"/>
    <trip id="290" depart="290.00" from="-246687452#11" to="363297714#3"/>
    <trip id="291" depart="291.00" from="361657061#4" to="-1074436800"/>
    <trip id="292" depart="292.00" from="457093852" to="-185305398#1"/>
    <trip id="293" depart="293.00" from="-767777772#2" to="1381151897"/>
    <trip id="294" depart="294.00" from="-402881938#1" to="-1074432524#3"/>
    <trip id="295" depart="295.00" from="363297712#4" to="-1381159555#0"/>
    <trip id="296" depart="296.00" from="-177523149#7" to="361568707#1"/>
    <trip id="297" depart="297.00" from="-361657063#2" to="457093788#3"/>
    <trip id="298" depart="298.00" from="177523157#16" to="-246687484"/>
    <trip id="299" depart="299.00" from="-1074432473" to="720543253#14"/>
    <trip id="300" depart="300.00" from="-1074436790" to="185261845#2"/>
    <trip id="301" depart="301.00" from="1074432494" to="246687468#1"/>
    <trip id="302" depart="302.00" from="177523149#12" to="1381159543#1"/>
    <trip id="303" depart="303.00" from="1074432502#1" to="361568687#0"/>
    <trip id="304" depart="304.00" from="-1074436809#0" to="-177523158#1"/>
    <trip id="305" depart="305.00" from="177523149#17" to="-361570529#2"/>
    <trip id="306" depart="306.00" from="1381134483#2" to="1074432459"/>
    <trip id="307" depart="307.00" from="1074436735#3" to="-720436246#10"/>
    <trip id="308" depart="308.00" from="246687430#2" to="-361657055#5"/>
    <trip id="309" depart="309.00" from="177523157#5" to="-246687469#5"/>
    <trip id="310" depart="310.00" from="-185305419#0" to="-1381134505#2"/>
    <trip id="311" depart="311.00" from="-1381159582" to="-1381134504#1"/>
    <trip id="312" depart="312.00" from="1074436742#0" to="246687472#7"/>
    <trip id="313" depart="313.00" from="-1381159561#1" to="-177523152#9"/>
    <trip id="314" depart="314.00" from="1074432479#1" to="185261910#2"/>
    <trip id="315" depart="315.00" from="720628627#16" to="1074432571#2"/>
    <trip id="316" depart="316.00" from="-246687508#0" to="-1381134465#3"/>
    <trip id="317" depart="317.00" from="-1381159588" to="-177523173#2"/>
    <trip id="318" depart="318.00" from="-1381159552#0" to="-1074432483#0"/>
    <trip id="319" depart="319.00" from="1074436739#0" to="-246687474"/>
    <trip id="320" depart="320.00" from="720628537" to="1074436765"/>
    <trip id="321" depart="321.00" from="177523152#20" to="-1381134519#2"/>
    <trip id="322" depart="322.00" from="402881934#1" to="1074432502#1"/>
    <trip id="323" depart="323.00" from="402881938#11" to="1381134465#0"/>
    <trip id="324" depart="324.00" from="1059655613#0" to="-720543253#2"/>
    <trip id="325" depart="325.00" from="-1381159559#0" to="-1074432571#0"/>
    <trip id="326" depart="326.00" from="720447016#6" to="1074432466#3"/>
    <trip id="327" depart="327.00" from="361657055#0" to="-656151028#2"/>
    <trip id="328" depart="328.00" from="-1074436748#0" to="1381154882#1"/>
    <trip id="329" depart="329.00" from="-1074432570#1" to="-1381151932"/>
    <trip id="330" depart="330.00" from="116378452#0" to="-361568698#0"/>
    <trip id="331" depart="331.00" from="767777768" to="-1381134501"/>
    <trip id="332" depart="332.00" from="246687480#1" to="1381151889#1"/>
    <trip id="333" depart="333.00" from="279683621#1" to="-177523169#3"/>
    <trip id="334" depart="334.00" from="1074432570#1" to="-720628375#1"/>
    <trip id="335" depart="335.00" from="-720566239#0" to="363298362#0"/>
    <trip id="336" depart="336.00" from="767777760#0" to="-361568707#0"/>
    <trip id="337" depart="337.00" from="1381151930#0" to="1381151896#1"/>
    <trip id="338" depart="338.00" from="185305419#4" to="720543253#12"/>
    <trip id="339" depart="339.00" from="-177523149#0" to="-177523149#5"/>
    <trip id="340" depart="340.00" from="1381159567#1" to="-1381154883"/>
    <trip id="341" depart="341.00" from="-1381159542#0" to="-1074436757#0"/>
    <trip id="342" depart="342.00" from="-1074432458#2" to="-720628375#1"/>
    <trip id="343" depart="343.00" from="1381134508#4" to="-279683593#4"/>
    <trip id="344" depart="344.00" from="-185261727#8" to="177523167#3"/>
    <trip id="345" depart="345.00" from="177523157#5" to="-767777751"/>
    <trip id="346" depart="346.00" from="177523145#1" to="720438512"/>
    <trip id="347" depart="347.00" from="279683595#9" to="1381154870#1"/>
    <trip id="348" depart="348.00" from="1381159569#1" to="720447015#21"/>
    <trip id="349" depart="349.00" from="-720436245#1" to="1074436747#5"/>
    <trip id="350" depart="350.00" from="1381159544#1" to="673333650#2"/>
    <trip id="351" depart="351.00" from="361657057#1" to="-1074436749#0"/>
    <trip id="352" depart="352.00" from="-1381154899" to="-361570531#0"/>
    <trip id="353" depart="353.00" from="246687438#0" to="1375928784#1"/>
    <trip id="354" depart="354.00" from="-246687521#3" to="-1381134515"/>
    <trip id="355" depart="355.00" from="177523148#1" to="177523157#1"/>
    <trip id="356" depart="356.00" from="720448517#1" to="1074432524#3"/>
    <trip id="357" depart="357.00" from="1074432510" to="-1074436767#1"/>
    <trip id="358" depart="358.00" from="-1074432537" to="-720447015#2"/>
    <trip id="359" depart="359.00" from="-361657049#0" to="-185305418#7"/>
    <trip id="360" depart="360.00" from="-1074436803#1" to="720599053#1"/>
    <trip id="361" depart="361.00" from="361657073#0" to="1381134467"/>
    <trip id="362" depart="362.00" from="720543253#4" to="767777776#3"/>
    <trip id="363" depart="363.00" from="176481702#2" to="-246687468#0"/>
    <trip id="364" depart="364.00" from="-1074432540#1" to="246687452#10"/>
    <trip id="365" depart="365.00" from="1059655615" to="1381159552#3"/>
    <trip id="366" depart="366.00" from="720428928#8" to="-1381159554#4"/>
    <trip id="367" depart="367.00" from="1381134491#1" to="1381154893"/>
    <trip id="368" depart="368.00" from="1074432504#2" to="-116378378#2"/>
    <trip id="369" depart="369.00" from="-361657083#3" to="-361657057#0"/>
    <trip id="370" depart="370.00" from="173780863#10" to="363297722#3"/>
    <trip id="371" depart="371.00" from="-361657055#10" to="177523149#7"/>
    <trip id="372" depart="372.00" from="-246687521#1" to="720448518#3"/>
    <trip id="373" depart="373.00" from="361570550#3" to="1074436758#2"/>
    <trip id="374" depart="374.00" from="-720630454#7" to="-361570544#5"/>
    <trip id="375" depart="375.00" from="-361657049#4" to="720628376#8"/>
    <trip id="376" depart="376.00" from="-656151031#2" to="1074432550#0"/>
    <trip id="377" depart="377.00" from="767777755#5" to="1381159562#2"/>
    <trip id="378" depart="378.00" from="1074436748#0" to="-656151041#7"/>
    <trip id="379" depart="379.00" from="-1381159565#3" to="-363297716#0"/>
    <trip id="380" depart="380.00" from="246687452#1" to="1381154870#3"/>
    <trip id="381" depart="381.00" from="246687469#5" to="-177523143#1"/>
    <trip id="382" depart="382.00" from="1074436761#1" to="720445431#1"/>
    <trip id="383" depart="383.00" from="-720543253#10" to="177523152#8"/>
    <trip id="384" depart="384.00" from="-1381134502#1" to="720628536#5"/>
    <trip id="385" depart="385.00" from="1381151898#1" to="-185261956#7"/>
    <trip id="386" depart="386.00" from="-1381154883" to="1074436760"/>
    <trip id="387" depart="387.00" from="1074436771" to="-1341432741#1"/>
    <trip id="388" depart="388.00" from="767777764#0" to="720428928#0"/>
    <trip id="389" depart="389.00" from="-767777764#0" to="-1381134498#0"/>
    <trip id="390" depart="390.00" from="361657061#9" to="1074432521"/>
    <trip id="391" depart="391.00" from="185261747#3" to="1074432535#2"/>
    <trip id="392" depart="392.00" from="-246687472#4" to="361657072"/>
    <trip id="393" depart="393.00" from="720630454#5" to="-185305398#1"/>
    <trip id="394" depart="394.00" from="1074436766#1" to="-402881940#4"/>
    <trip id="395" depart="395.00" from="720436246#8" to="1074432534#7"/>
    <trip id="396" depart="396.00" from="456974618#0" to="402881931#8"/>
    <trip id="397" depart="397.00" from="-246687480#1" to="279683622#0"/>
    <trip id="398" depart="398.00" from="-656151044#2" to="720447015#24"/>
    <trip id="399" depart="399.00" from="1074432534#6" to="361657054#0"/>