<?xml version='1.0' encoding='UTF-8'?>
<routes xmlns:xsi="http://www.w3.org/2001/XMLSchema-instance" xsi:noNamespaceSchemaLocation="http://sumo.dlr.de/xsd/routes_file.xsd">
    <vehicle id="veh_0" depart="0.00">
        <route edges="1381154902#3 -1381154904#0 -460733782#4 -460733782#3 -460733782#2 -460733782#1 -460733782#0 720630454#7 720628536#10 720609528 720632135#1 720632135#2 720632135#3 720632135#4 720632135#5 720632135#6 720632135#7 720632135#8 720628627#0 720628627#1 720628627#2 720628627#3 720628627#4 720628627#5 720628627#6 720628627#7 720628627#8 720628627#9 720628627#10 720628627#11 720628627#12 720628627#13 720628627#14 720628627#15 720628627#16 -44965300#7 -44965300#6 -44965300#5 -44965300#4 -44965300#3 -44965300#1 -44965300#0 -246687521#3 -246687521#2 -246687521#1 -246687521#0 -246687517#0 -1074432518#4 -1074432518#3" />
    </vehicle>
    <vehicle id="veh_1" depart="1.00">
        <route edges="-246687474 246687469#7 246687469#8 -246687518#1 -246687518#0 177523131#3 177523131#4 177523131#6 177523131#7 -177523154 -177523173#12 -177523173#11 -177523173#10 -177523173#9 -177523173#8 -177523173#7 -177523173#5 -177523173#4 -177523173#3 -177523173#2 1074432533#2 -1074432532#2 -177523165#0" />
    </vehicle>
    <vehicle id="veh_2" depart="2.00">
        <route edges="185305416#1 185305416#2 185305416#3 185305416#4 185305416#5 720632135#6 720632135#7 720632135#8 720628627#0 720628627#1 720628627#2 720628627#3 720628627#4 720628627#5 720628627#6 720628627#7 720628627#8 720628627#9 720628627#10 720628627#11 720628627#12 720628627#13 720628627#14 720628627#15 720628627#16 -44965300#7 -44965300#6 -44965300#5 -44965300#4 -44965300#3 -44965300#1 -44965300#0 176481703#2 176481703#3 176481703#4 176481703#5 176481703#6 -720543253#16 -1074432458#2 -1074432458#1 -1074432458#0 -177523167#3 -177523167#2 -177523167#1 -177523167#0 -177523157#20 -177523157#19 -177523157#18 -177523157#17 -177523157#16 -177523134#5 -177523134#4 -177523134#2 177523134#2" />
    </vehicle>
    <vehicle id="veh_3" depart="3.00">
        <route edges="493918493#1 493918497 185261727#3 -656151047#1 -656151047#0 -1348683099#1 -1348683099#0 363297722#6 -720628373 720628376#4 720628376#5 720628376#6 720628376#7 720628376#8 -361657072 185305427#0 185305427#2 185305427#3 185305427#4 185305427#5 27256090#8 27256090#9 -185305426#8 -185305426#7 -185305426#6 -185305426#4 -185305426#3 -185305426#2 -185305426#1 -185305426#0 -402881938#6 -402881938#5 -402881938#4 -1074436801" />
    </vehicle>
    <vehicle id="veh_4" depart="4.00">
        <route edges="-720428928#4 -720428928#3 -720428928#2 -720428928#1 -720428928#0 1381151876#0 1381151876#1 1381151876#2 177523174#0 177523174#1 177523174#2 177523174#3 177523174#4 177523174#5 177523174#6 177523174#7 1388713138#0 1388713138#1 1059655616 1059655613#0 1059655613#1 1059655613#2 177523149#0 177523149#1 177523149#2 177523149#3 177523149#4 177523149#5 177523149#6 177523149#7 177523149#9 177523149#10 177523149#11 177523149#12 177523149#13 177523149#14 177523149#15 177523149#16 177523149#17 177523149#18 177523149#19 177523149#20 -177523167#3 -177523167#2 -177523167#1 -177523167#0 -177523157#20 -177523157#19 -1074432524#3 1074432526#1 -1074432525#4" />
    </vehicle>
    <vehicle id="veh_5" depart="5.00">
        <route edges="-177523157#12 -177523173#3 -177523173#2 -177523173#1 177523165#0 1074432532#2" />
    </vehicle>
    <vehicle id="veh_6" depart="6.00">
        <route edges="-1074432519#0 -1074432518#1 -1074432518#0 246687441#2 246687469#4 246687469#5 246687469#6 246687469#7 246687469#8 -246687518#1 -246687518#0 -177523131#2 -177523131#1" />
    </vehicle>
    <vehicle id="veh_7" depart="7.00">
        <route edges="1381159548#1 1381159550#1 1381159550#2 -1381159546#1 -1381159546#0 720447015#6 720447015#7 720447015#8 720447015#9 720447015#10 720447015#11 720447015#12 720447015#13 720447015#14 720447015#15 720447015#16 720447015#17 720447015#18 720447015#19 185261909#4 185261909#5 185261909#6 -185305426#8 -185305426#7 -185305426#6 -185305426#4 -185305426#3 -185305426#2 -185305426#1 -185305426#0 -185305382 -185305394#3 -185305394#2 -185305394#1 -185305394#0 185305411#0 185305411#1 1059655615 1388713139#1 177523141#1 177523141#2 1074436748#0 1074436748#1" />
    </vehicle>
    <vehicle id="veh_8" depart="8.00">
        <route edges="-177523157#2 177523157#2 177523157#3 177523157#5 177523157#6 177523157#7 177523157#9 177523157#11 177523157#12 177523157#13 177523157#14 177523157#16 177523157#17 177523157#18 177523157#19 177523157#20 177523167#0 177523167#1 177523167#2 177523167#3 -177523149#20 -177523149#19 -177523149#18 -177523149#17 -177523149#16 -177523149#15 -177523149#14 -177523149#13 -177523149#12 -177523149#11 -177523149#10 -177523149#9 -177523149#7 -177523149#6 -177523149#5 -177523149#4 -177523149#3 -177523149#2 -177523149#1 -177523149#0 1059655617#0 1059655617#1 1388713139#1 177523135#0 177523135#1 177523135#2 177523135#3 177523135#4 177523135#5 720428929#0 720428929#1 720428929#2 720428928#0 720428928#1 720428928#2 720428928#3 720428928#4 279683595#8 279683595#9 -1381134465#3 -1381134465#2 -1381134465#1 -1381134465#0 -1381134494#1 1381134494#1" />
    </vehicle>
    <vehicle id="veh_9" depart="9.00">
        <route edges="361570545#6 361570544#7 361570546#9 361570546#10 361570546#11 361570546#12 361570546#13 -185305426#1 -185305426#0 -185305382 -185305394#3 -185305394#2 -185305394#1 -185305394#0 185305411#0 185305385 1059655613#1 1059655613#2 177523149#0 177523149#1 177523149#2 177523149#3 177523149#4 177523149#5 177523149#6 177523149#7 177523149#9 177523149#10 177523149#11 177523149#12 177523149#13 177523149#14 177523149#15 177523149#16 177523149#17 177523149#18 177523149#19 177523149#20 -177523167#3 -177523167#2 -177523167#1 -177523167#0 -177523157#20 -177523157#19 -177523157#18 -177523157#17 -177523157#16 -177523157#14 -177523157#13 -177523157#12 -177523157#11 -177523157#9 1074432471 -1074432466#2 -1074432466#1 -1074432466#0" />
    </vehicle>
    <vehicle id="veh_10" depart="10.00">
        <route edges="361570537 -361568698#4 -361568698#2 -361568698#1 -361568698#0 -361568694#1 -361568694#0 177523149#13 177523152#0 177523152#1 177523152#2 177523152#3 177523152#4 177523152#5 177523152#7" />
    </vehicle>
    <vehicle id="veh_11" depart="11.00">
        <route edges="-361657063#2 185305388#2 185305388#3 185305388#4 185305388#5 720447015#16 720447015#17 656151039#0 656151039#1 656151038#4 1381159569#2 1381159569#3 -720628537 720628627#0 720628627#1 720628627#2 720628627#3 720628627#4 720628627#5 720628627#6 -1381154875#2 -1381154875#1 -767777764#2 -767777764#1 1381154878 -1381154878" />
    </vehicle>
    <vehicle id="veh_12" depart="12.00">
        <route edges="720585531 720585532#0 720585532#1 720585532#2 720585532#3 720585534#0 720585534#1 720566240#1 720582724 720582722#1 -720592783 720592784#0 720592784#1 720592784#2 720592784#3 177523174#2 177523174#3 177523174#4 177523174#5 177523174#6 177523174#7 1388713138#0 185305383 185305400#1 185305400#2 185305394#0 185305394#1 185305394#2 185305394#3 185305382 185305426#0 185305426#1 185305426#2 185305426#3 185305426#4 185305426#6 185305426#7 185305426#8 -185261909#6 -361657061#12" />
    </vehicle>
    <vehicle id="veh_13" depart="13.00">
        <route edges="-1074436806 1074436805#2 -656151041#5 1074436807 -185305419#4 -185305419#3 -185305419#2 -185305419#1 -185305419#0 -185305381 -185305398#2 -185305398#1 -185305398#0 720428929#0 720428929#1 720428929#2 720428928#0 363297694#0 363297694#1 363297694#2 363297694#3 1381134456#0 1381134456#1 -1381134458#1 -1381134458#0" />
    </vehicle>
    <vehicle id="veh_14" depart="14.00">
        <route edges="363297693#3 -363297694#0 -720428928#0 1381151876#0 1381151876#1 1381151876#2 185305398#0 185305398#1 185305398#2 185305381 185305419#0 185305419#1 -1381151878#1 1381151879#0 1381151880#0 1381151880#1" />
    </vehicle>
    <vehicle id="veh_15" depart="15.00">
        <route edges="361570544#2 -361657053#5 -361657053#4 -361657053#3 -361657053#2 -361657053#1 -185305426#6 -185305426#4 -185305426#3 -185305426#2 -185305426#1 -185305426#0 -185305382 -185305394#3 -185305394#2 185305394#2" />
    </vehicle>
    <vehicle id="veh_16" depart="16.00">
        <route edges="1074436742#2 1074436742#3 -1074436741#1 -1074436744#0 177523135#0 177523142#11 1388713138#0 185305383 185305400#1 185305400#2 185305394#0 185305394#1 185305394#2 185305394#3 185305382 185305426#0 185305426#1 185305426#2 185305426#3 185305426#4 185305426#6 185305426#7 185305426#8 -185261909#6 -185261909#5 -185261909#4 -185261909#3 -185261909#2 -185261909#1 173780863#10 720628536#0 720628536#1 720628536#2 720628536#3 720628536#4 720628536#5" />
    </vehicle>
    <vehicle id="veh_17" depart="17.00">
        <route edges="-402881937#5 -1074436794 -361657053#4 -361657053#3 -361657053#2 -361657053#1 -185305426#6 361657051#0 361657051#1 185305418#2 185305418#3 185305418#4 185305418#5 185305418#7 1381151932 1381151931 177523149#7 1074436809#0 1074436809#1 1074436761#4" />
    </vehicle>
    <vehicle id="veh_18" depart="18.00">
        <route edges="361657061#11 -361657061#11 -361657061#10 -185305402#1 27256090#13 27256090#14 27256090#15 -185305419#9 -185305419#8 -185305419#7 -185305419#6 -185305419#5 -1074436807 1381151920 -1381134519#2 1381151921" />
    </vehicle>
    <vehicle id="veh_19" depart="19.00">
        <route edges="363298362#1 363298362#2 -177523143#1 -177523143#0 -177523149#18 -177523149#17 -177523149#16 -177523149#15 -177523149#14 -177523149#13 -177523149#12 -177523149#11 -177523149#10 -177523149#9 -177523149#7 -177523149#6 -177523149#5 -177523149#4 -177523149#3 -177523149#2 -177523149#1 -177523149#0 1059655617#0 1059655617#1 1388713139#1 177523135#0 177523135#1 177523135#2 177523135#3 177523135#4 177523135#5 720428929#0 720428929#1 720428929#2 720428928#0 720428928#1 720428928#2 720428928#3 720428928#4 279683595#8 279683595#9 279683595#10 279683595#11 720428930#5 -1381134470#3 1381134474 1381134473#2" />
    </vehicle>
    <vehicle id="veh_20" depart="20.00">
        <route edges="177523159#1 177523159#2 177523160#1 720632135#5 720632135#6 720632135#7 720632135#8 720628627#0 720628627#1 720628627#2 720628627#3 720628627#4 720628627#5 720628627#6 720628627#7 720628627#8 720628627#9 720628627#10 720628627#11 720628627#12 720628627#13 720628627#14 720628627#15 720628627#16 -44965300#7 -44965300#6 -44965300#5 -44965300#4 -44965300#3 -44965300#1 -44965300#0 176481703#2 176481703#3 176481703#4 176481703#5 176481703#6 -720543253#16 -1074432458#2 -1074432458#1 -1074432458#0 -177523167#3 -177523167#2 -177523167#1 -177523152#9 1074432567 -1074432523#2 -1074432523#1 -1074432523#0 -1074432531#2 1074432557#0 -1074432557#0" />
    </vehicle>
    <vehicle id="veh_21" depart="21.00">
        <route edges="-177523173#11 177523173#11 177523173#12 -720543253#11 -720543253#10 -1074432510 -246687438#3 -246687438#2 -246687526#2" />
    </vehicle>
    <vehicle id="veh_22" depart="22.00">
        <route edges="-1074436758#3 -1074436758#2 -1074436810 -1074436735#1 -1074436735#0 -673333650#2 -673333650#1 -673333650#0 177523149#3 177523149#4 177523149#5 177523149#6 -1381151931 -1381151932 -185305418#7 -185305418#5 -185305418#4 -185305418#3 -185305418#2 -185305418#1 -185305418#0 -185305427#5 -185305427#4 -185305427#3 -185305427#2 -185305427#0 -173780863#5 361657073#0 361657073#1 720628627#7 720628627#8 720628627#9 720628627#10 720628627#11 -363297722#6 1348683099#0 1348683099#1 -185261727#7 -185261727#6 -185261806#4" />
    </vehicle>
    <vehicle id="veh_23" depart="23.00">
        <route edges="-1381134460#1 -279683595#15 -279683595#13 -279683595#12 -279683595#11 -279683595#10 -279683595#9 -279683595#8 -720428928#4 -720428928#3 -720428928#2 -720428928#1 -720428928#0 1381151876#0 1381151876#1 1381151876#2 177523174#0 177523174#1 177523174#2 177523174#3 177523174#4 177523174#5 177523174#6 177523174#7 1388713138#0 1388713138#1 1059655616 1059655613#0 1059655613#1 1059655613#2 177523149#0 177523149#1 177523149#2 177523149#3 177523149#4 177523149#5 177523149#6 177523149#7 177523149#9 177523149#10 177523149#11 177523149#12 177523149#13 177523149#14 177523149#15 177523149#16 177523149#17 177523149#18 177523149#19 177523149#20 1074432457#0 1074432457#1 -1074432459 246687487#0 246687487#1 -177523131#4 246687438#0 246687438#1 246687438#2 1074432507#0 1074432512#0 1074432512#2 -246687442#2 -246687491#2 -246687491#0" />
    </vehicle>
    <vehicle id="veh_24" depart="24.00">
        <route edges="1381154896 177523139#2 177523139#3 1381154893 177523160#0 177523160#1 720632135#5 720632135#6 -720628628 -363297720#3 -363297720#2" />
    </vehicle>
    <vehicle id="veh_25" depart="25.00">
        <route edges="-402881931#0 720448518#2 185305414#0 185305414#1 185305414#2 185305414#3 185305414#4 185305414#5 720447015#10 720447015#11 720447015#12 720447015#13 720447015#14 720447015#15 720447015#16 720447015#17 720447015#18 720447015#19 720447015#20 720447015#21 720447015#22 720447015#23 720447015#24 185305427#4 185305427#5 185305418#0 185305418#1 185305418#2 185305418#3 185305418#4 185305418#5 185305418#7 1381151932 1381151931 177523149#7 177523149#9 177523149#10 177523149#11 177523149#12 177523149#13 177523149#14 177523149#15 177523149#16 177523149#17 -177523149#17" />
    </vehicle>
    <vehicle id="veh_26" depart="26.00">
        <route edges="-246687447 -246687445#0 246687439#1 246687472#6 246687472#7 -246687436#1 1381159590 1381159586 -720628375#5 -720628375#4 1381159583 1381159582 44965300#5 44965300#6 44965300#7 720628376#0 720628376#1 -720447015#33 720447015#33" />
    </vehicle>
    <vehicle id="veh_27" depart="27.00">
        <route edges="1381159545#1 -1381159543#0 720447015#10 720447015#11 720447015#12 720447015#13 -185305402#7 -185305402#6 -185305402#5 -185305402#4 -185305402#3 -185305402#2 -185305402#1 361570544#0 361570544#2 361570544#4 -402881937#3 -402881937#2 460733772#1 -185305428#2 -185305428#1 -185305428#0 -1074436800 -185305378 -1381151895#2 1381151895#2" />
    </vehicle>
    <vehicle id="veh_28" depart="28.00">
        <route edges="-1381154905 -1381154908 -1381154903#1 -1381154903#0 -402881931#9 720447015#1 720447015#2 720447015#3 720447015#4 720447015#5 720447015#6 720447015#7 720447015#8 720447015#9 720447015#10 720447015#11 720447015#12 720447015#13 720447015#14 656151037#0 361657071#1 185305388#5" />
    </vehicle>
    <vehicle id="veh_29" depart="29.00">
        <route edges="-1381154893 1381154893 177523160#0 177523160#1 720632135#5 720632135#6 720632135#7 720632135#8 720628537 -173780863#10 -173780863#9 -173780863#8 -173780863#7 185305427#0 185305427#2 185305427#3 185305427#4 185305427#5 185305418#0 185305418#1 185305418#2 185305418#3 185305418#4 185305418#5 185305418#7 402881938#10 -402881938#10" />
    </vehicle>
    <vehicle id="veh_30" depart="30.00">
        <route edges="767777759#1 -767777762#3 -767777762#2 -767777762#0 1381154875#1 1381154875#2 720628376#8 720628376#9 720628376#10 720628376#11 720628376#12 720628376#13 720628536#0 720628536#1 720628536#2 720628536#3 720628536#4 720628536#5 720628536#6 720628536#7 720628536#8 720628536#9 -720630454#7 -720630454#6 -720630454#5 -720630454#4 -720630454#3 -720630454#2 -402881931#12 -402881931#11 -402881931#10 1381154903#0" />
    </vehicle>
    <vehicle id="veh_31" depart="31.00">
        <route edges="1074436797#2 1074436797#3 361657055#8 1074436802#0 1074436802#1 1074436802#2 -185305426#0 -185305382 -185305394#3 -185305394#2 -185305394#1 -185305394#0 185305411#0 185305411#1 1059655615 1388713139#1 177523141#1 177523141#2 177523141#3 177523141#4 177523141#5 177523141#6 177523141#7 177523142#6" />
    </vehicle>
    <vehicle id="veh_32" depart="32.00">
        <route edges="361657085#2 361657085#3 720447015#29 720447015#30 720447015#31 361570536#0 361570538#0 361568698#6 720628627#16 -44965300#7 -44965300#6 -44965300#5 -44965300#4 -44965300#3 -44965300#1 -44965300#0 -246687521#3 -246687521#2 -246687521#1 -246687521#0 246687521#0 246687521#1" />
    </vehicle>
    <vehicle id="veh_33" depart="33.00">
        <route edges="-177523173#5 -177523173#4 -177523173#3 -177523173#2 -177523173#1 -177523173#0 177523134#0 -1074432530#3 -1074432530#2" />
    </vehicle>
    <vehicle id="veh_34" depart="34.00">
        <route edges="-361570545#0 402881934#3 -361570546#0 -185305419#2 -185305419#1 -185305419#0 -185305381 -185305398#2 -185305398#1 -185305398#0 177523174#0 177523174#1 177523174#2 177523174#3 177523174#4 177523174#5 177523174#6 177523174#7 1388713138#0 1388713138#1 1059655616 1059655613#0 1059655613#1 1059655613#2 177523149#0 177523149#1 177523149#2 177523149#3 177523149#4 177523149#5 177523149#6 177523149#7 177523149#9 177523149#10 177523149#11 177523149#12 177523149#13 177523149#14 177523149#15 177523149#16 177523149#17 177523149#18 177523149#19 177523149#20 1074432457#0 1074432457#1 1074432457#4 177523145#3 177523145#4 -720543253#12 -720543253#11 -720543253#10 -720543253#8 -720543253#7 -246687452#11 -246687452#10" />
    </vehicle>
    <vehicle id="veh_35" depart="35.00">
        <route edges="-177523149#20 -177523149#19 -177523149#18 -177523149#17 -177523149#16 -177523149#15 -177523149#14 -177523149#13 -177523149#12 -177523149#11 361570531#0 361570531#1 361570531#2 361570531#3 361570531#5 -361570529#4 -361570529#3 -361570529#2 -361570529#1 185261956#8 720448518#10" />
    </vehicle>
    <vehicle id="veh_36" depart="36.00">
        <route edges="402881940#2 -1381151889#1 -1381151889#0 -767777775#4 -361657055#11 -361657055#10 -361657055#9 -361657055#8 -361657055#7 -361570546#10 -361570546#9 -361570544#7 -361570544#6" />
    </vehicle>
    <vehicle id="veh_37" depart="37.00">
        <route edges="1381159557#1 -1381159559#0 -460733782#1" />
    </vehicle>
    <vehicle id="veh_38" depart="38.00">
        <route edges="720428928#12 -720428928#12 -720428928#11 -720428928#10 -720428928#9 -720428928#8 -720428928#7 -720428928#5 -720428928#4 -720428928#3 -720428928#2 -720428928#1 -720428928#0 1381151876#0 1381151876#1 1381151876#2 177523174#0 177523174#1 177523174#2 177523174#3 177523174#4 177523174#5 177523174#6 177523174#7 1388713138#0 1388713138#1 1059655616 1059655613#0 1059655613#1 1059655613#2 177523149#0 177523149#1 177523149#2 177523149#3 177523149#4 177523149#5 177523149#6 -1381151931 -1381151932 -185305418#7 -185305418#5 -185305418#4 -185305418#3 -185305418#2 -185305418#1 -185305418#0 -185305427#5 -185305427#4 -185305427#3 -185305427#2 -185305427#0 -173780863#5 361657073#0 361657073#1 720628627#7 720628627#8 720628627#9 720628627#10 -767777760#2" />
    </vehicle>
    <vehicle id="veh_39" depart="39.00">
        <route edges="-246687442#6 246687442#6 -246687526#0 246687469#8 246687469#9 246687469#10 246687521#1 -246687490 -246687468#0 44965300#1 44965300#3 44965300#4 44965300#5 44965300#6 44965300#7 720628376#0 720628376#1 -720447015#33 -720447015#32 -720447015#31 -720447015#30 -720447015#29 -720447015#28 -720447015#27 -720447015#26 -720447015#25 -720447015#24 -720447015#23 -720447015#22 -720447015#21 -720447015#20 -720447015#19 -720447015#18 -720447015#17 -720447015#16 -720447015#15 -720447015#14 -720447015#13 -720447015#12 -720447015#11 -720447015#10 -185305414#5 -185305414#4 -185305414#3" />
    </vehicle>
    <vehicle id="veh_40" depart="40.00">
        <route edges="1074436809#0 -1074436809#0 177523149#9 177523149#10 177523149#11 177523149#12 177523149#13 177523149#14 177523149#15 177523149#16 177523149#17 177523149#18 177523149#19 177523149#20 1074432457#0 1074432457#1 1074432457#4 177523145#3 177523145#4 -720543253#12 -720543253#11 -720543253#10 -1074432510 246687438#5 -1074432508 1074432507#3 -246687442#0" />
    </vehicle>
    <vehicle id="veh_41" depart="41.00">
        <route edges="1381134490#1 1381134489#1 -720428928#7 -720428928#5 -720428928#4 -720428928#3 -720428928#2 -720428928#1 -720428928#0 1381151876#0 1381151876#1 1381151876#2 177523174#0 177523174#1 177523174#2 177523174#3 177523174#4 177523174#5 177523174#6 177523174#7 1388713138#0 185305383 185305400#1 185305400#2 185305394#0 185305394#1 185305394#2 185305394#3 185305382 185305426#0 185305426#1 185305426#2 185305426#3 185305426#4 185305426#6 185305426#7 185305426#8 -185261909#6 -185261909#5 -185261909#4 -720447015#19 -720447015#18 -720447015#17 -720447015#16 -720447015#15 -720447015#14 -720447015#13 -720447015#12 -656151033#3 656151033#3" />
    </vehicle>
    <vehicle id="veh_42" depart="42.00">
        <route edges="-493918497 493918492#1 493918492#2 493918492#3 -185261806#3 767777770#0 767777770#1 720628627#13 720628627#14 720628627#15 720628627#16 -44965300#7 -44965300#6 -44965300#5 -44965300#4 -44965300#3 -44965300#1 -44965300#0 176481703#2 176481703#3 176481703#4 176481703#5 176481703#6 -720543253#16 -1074432458#2 -1074432458#1 -1074432458#0 -177523167#3 -177523167#2 -177523167#1 -177523167#0 -177523157#20 -177523157#19 -177523157#18" />
    </vehicle>
    <vehicle id="veh_43" depart="43.00">
        <route edges="767777775#1 1381151936 -1381151935#0 1381151934#1 -185305394#1 -185305394#0 185305411#0 185305385 1059655613#1 1059655613#2 177523149#0 177523149#1 177523149#2 177523149#3 177523149#4 177523149#5 177523149#6 177523149#7 177523149#9 177523149#10 177523149#11 177523149#12 177523149#13 177523149#14 177523149#15 177523149#16 177523149#17 177523149#18 177523149#19 177523149#20 -177523167#3 -177523167#2 -177523167#1 -177523167#0 -177523157#20 -177523157#19 -177523157#18 -177523157#17 -177523157#16 -177523157#14 -177523157#13 -177523157#12 -177523173#3 -177523173#2 -177523173#1 -177523173#0 -1074432535#3 -1074432535#2 1074432536#0 1074432536#1" />
    </vehicle>
    <vehicle id="veh_44" depart="44.00">
        <route edges="-1074436803#0 402881938#6 -185305382 -185305394#3 -185305394#2 -185305394#1 -185305394#0 185305411#0 185305385 1059655613#1 1059655613#2 177523149#0 177523149#1 177523149#2 177523149#3 177523149#4 177523149#5 177523149#6 177523149#7 177523149#9 177523149#10 177523149#11 -361568689#2 -361568689#1 -361568689#0 767777755#1 -1074432558#4" />
    </vehicle>
    <vehicle id="veh_45" depart="45.00">
        <route edges="-1381134479#0 1381134478#5 -720428928#5 -720428928#4 -720428928#3 -720428928#2 -720428928#1 -720428928#0 1381151876#0 1381151876#1 1381151876#2 177523174#0 177523174#1 177523174#2 177523174#3 177523174#4 177523174#5 177523174#6 177523174#7 1388713138#0 1388713138#1 1059655616 1059655613#0 1059655613#1 1059655613#2 177523149#0 177523149#1 177523149#2 177523149#3 177523149#4 177523149#5 177523149#6 -1381151931 -1381151932 -185305418#7 -185305418#5 -185305418#4 -185305418#3 -185305418#2 -185305418#1 -185305418#0 -185305427#5 -185305427#4 -185305427#3 -185305427#2 -185305427#0 -173780863#5 361657073#0 361657073#1 -1381154875#2 -1381154875#1 -767777764#2 -767777764#1 1381154878 -363297722#0 1381154876#0 1381154876#1" />
    </vehicle>
    <vehicle id="veh_46" depart="46.00">
        <route edges="279683626#3 -279683626#3 -279683626#1 -279683626#0 -720428928#9 -720428928#8" />
    </vehicle>
    <vehicle id="veh_47" depart="47.00">
        <route edges="-1074436735#7 1074436735#7 -1074436740#1 -1074436740#0 1074436739#1 1059655614 185305400#0 185305400#1 185305400#2 185305394#0 185305394#1 185305394#2 185305394#3 185305382 -402881938#6" />
    </vehicle>
    <vehicle id="veh_48" depart="48.00">
        <route edges="767777773#0 767777773#1 767777773#2 767777773#3 1381151931 177523149#7 177523149#9 177523149#10 177523149#11 177523149#12 177523149#13 177523149#14 177523149#15 177523149#16 177523149#17 177523149#18 177523149#19 177523149#20 -177523167#3 -177523167#2 -177523167#1 -177523167#0 1074432525#0 1074432525#1 1074432525#2 1074432556#0 1074432583#0 1074432583#1 1074432583#2 1074432583#3" />
    </vehicle>
    <vehicle id="veh_49" depart="49.00">
        <route edges="720628536#0 720628536#1 720628628 720632135#7 720632135#8 720628627#0 720628627#1 720628627#2 720628627#3 720628627#4 720628627#5 720628627#6 720628627#7 720628627#8 720628627#9 720628627#10 720628627#11 720628627#12 720628627#13 720628627#14 720628627#15 720628627#16 -44965300#7 -44965300#6 -44965300#5 -44965300#4 185261747#0 185261747#1 185261747#2 185261747#3 185261747#4 185261747#5 363298362#0 363298362#1 363298362#2" />
    </vehicle>
    <vehicle id="veh_50" depart="50.00">
        <route edges="-1074432475#2 -1074432475#1 -1074432475#0 1074432474#1 177523157#5 177523157#6 177523157#7 177523157#9 177523157#11 177523173#4 177523173#5 177523173#7 177523173#8 177523173#9 177523173#10 177523173#11 177523173#12 177523154 -177523131#7 -177523131#6 -177523131#4 -177523131#3 -177523131#2 -177523131#1 -246687434#3 -246687434#2 -246687434#1 176481703#4 185261854#1" />
    </vehicle>
    <vehicle id="veh_51" depart="51.00">
        <route edges="177523141#5 177523142#8 177523142#9 177523142#10 177523142#11 1388713138#0 1388713138#1 1059655616 1059655613#0 1059655613#1 1059655613#2 1059655617#0 1059655617#1 -1074436739#1 1074436740#0 1074436740#1" />
    </vehicle>
    <vehicle id="veh_52" depart="52.00">
        <route edges="-246687446#5 246687493#1 -246687434#1 -246687434#0 176481702#4 176481703#0 44965300#0 44965300#1 44965300#3 44965300#4 44965300#5 44965300#6 44965300#7 720628376#0 720628376#1 720628376#2 720628376#3 720628376#4 720628376#5 720628376#6 720628376#7 720628376#8 720628376#9 720628376#10 720628376#11 720628376#12 720628376#13 720628536#0 720628536#1 720628536#2 720628536#3 720628536#4 720628536#5 720628536#6 720628536#7 720628536#8 720628536#9 -720630454#7 -720630454#6 -720630454#5 1381154902#0 1381154902#1 1381154902#2 1381154902#3 1381154902#4 1381154903#3 1381154903#4" />
    </vehicle>
    <vehicle id="veh_53" depart="53.00">
        <route edges="-1381134482#0 -720428930#6 -720428930#5 -279683595#11 -279683595#10 -279683595#9 -279683595#8 -720428928#4 -720428928#3 -720428928#2 -720428928#1 -720428928#0 1381151876#0 1381151876#1 1381151876#2 177523174#0 177523174#1 177523174#2 177523174#3 177523174#4 177523174#5 177523174#6 177523174#7 1388713138#0 1388713138#1 1059655616 1059655613#0 1059655613#1 1059655613#2 177523149#0 177523149#1 177523149#2 177523149#3 177523149#4 177523149#5 177523149#6 177523149#7 177523149#9 177523149#10 361570531#0 361570531#1 361570531#2 361570531#3 361570531#5 361570531#6 361570531#7 361570532#0 361657088#0 -720447015#30" />
    </vehicle>
    <vehicle id="veh_54" depart="54.00">
        <route edges="-720630454#3 -720630454#2 -720630454#0 720630455 720630573 720630573-AddedOffRampEdge 720609525 720436251 720436250 720444143 720444142#0 720444142#1 720566239#0 720566239#1 720566239#2 720566247#0" />
    </vehicle>
    <vehicle id="veh_55" depart="55.00">
        <route edges="402881940#0 -1381151924#2 -1381151924#0 177523174#6 177523174#7 1388713138#0 1388713138#1 1059655616 1059655613#0 1059655613#1 1059655613#2 177523149#0 177523149#1 177523149#2 177523149#3 177523149#4 177523149#5 177523149#6 177523149#7 177523149#9 177523149#10 177523149#11 177523149#12 177523149#13 177523149#14 177523149#15 177523149#16 177523149#17 177523149#18 177523149#19 177523149#20 1074432457#0 1074432457#1 -1074432459 246687487#0 246687487#1 -177523131#4 246687438#0 246687438#1 246687438#2 1074432507#0 1074432512#0 1074432512#2 -246687442#2" />
    </vehicle>
    <vehicle id="veh_56" depart="56.00">
        <route edges="1074432525#0 1074432525#1 -1074432525#1 -1074432525#0 177523167#0 177523167#1 177523167#2 177523167#3 -177523149#20 -177523149#19 -177523149#18 -177523149#17 -177523149#16 -177523149#15 -177523149#14 -177523149#13 -177523149#12 -177523149#11 -177523149#10 -177523149#9 -177523149#7 -1381151931 -1381151932 -185305418#7 -185305418#5 -185305418#4 -185305418#3 -185305418#2 -185305418#1 -185305418#0 -185305427#5 -185305427#4 -720447015#24 -720447015#23 -720447015#22 -720447015#21 -720447015#20 -720447015#19 -720447015#18 -720447015#17 -720447015#16 -720447015#15 -720447015#14 -720447015#13 -720447015#12 -720447015#11 -720447015#10 -720447015#9 -720447015#8 -720447015#7 -720447015#6 1381159546#0 1381159546#1 -1381159550#2 -1381159551" />
    </vehicle>
    <vehicle id="veh_57" depart="57.00">
        <route edges="720424789#0 720424789#1 177523142#2 177523142#3 177523142#4 177523142#5 177523142#6 177523142#7 177523142#8 177523142#9 177523142#10 177523142#11 1388713138#0 185305383 185305400#1 185305400#2 185305394#0 185305394#1 185305394#2 185305394#3 185305382 185305426#0 185305426#1 185305426#2 -361657056#4 -361657056#3 -361657056#2 -361657056#1 -361657056#0 -361657055#5 -361657055#4 -402881937#5 402881937#5" />
    </vehicle>
    <vehicle id="veh_58" depart="58.00">
        <route edges="-279683626#0 -720428928#9 -720428928#8 -720428928#7 -720428928#5 -720428928#4 -720428928#3 -720428928#2 -720428928#1 -720428928#0 1381151876#0 1381151876#1 1381151876#2 177523174#0 177523174#1 177523174#2 177523174#3 177523174#4 177523174#5 177523174#6 177523174#7 1388713138#0 185305383 185305400#1 185305400#2 185305394#0 185305394#1 185305394#2 185305394#3 185305382 185305426#0 185305426#1 185305426#2 185305426#3 185305426#4 185305426#6 185305426#7 185305426#8 -185261909#6 -185261909#5 -185261909#4 -185261909#3 -185261909#2 -185261909#1 173780863#10 720628536#0 720628536#1 720628536#2 720628536#3 720628536#4 720628536#5 720628536#6 720628536#7 720628536#8 720628536#9 -720630454#7 -720630454#6 -720630454#5 1381154902#0" />
    </vehicle>
    <vehicle id="veh_59" depart="59.00">
        <route edges="1381151898#1 720444140#2 720444140#3 177523174#3 177523174#4 177523174#5 177523174#6 177523174#7 1388713138#0 185305383 185305400#1 185305400#2 185305394#0 185305394#1 185305394#2 185305394#3 185305382 185305426#0 185305426#1 185305426#2 185305426#3 185305426#4 185305426#6 185305426#7 185305426#8 -185261909#6 -185261909#5 -185261909#4 -185261909#3 -185261909#2 -185261909#1 -185261909#0 720628376#12 720628379 720628627#2 720628627#3 720628627#4 720628627#5 1381154873 -1381154873" />
    </vehicle>
    <vehicle id="veh_60" depart="60.00">